case1888_loading_1_365.m
function mpc = case1888_loading_1_365
%CASE1888_LOADING_1_365

%% MATPOWER Case Format : Version 2
mpc.version = '2';

%%-----  Power Flow Data  -----%%
%% system MVA base
mpc.baseMVA = 100;

%% bus data
%	bus_i	type	Pd	Qd	Gs	Bs	area	Vm	Va	baseKV	zone	Vmax	Vmin
mpc.bus = [
	1	1	7.917	-7.917	0	0	1	1.03128805	-18.749233	225	1	1.08889	0.888889;
	2	1	0	0	0	0	1	1.0673872	28.562718	380	1	1.10263	1.04841;
	3	1	194.5125	-18.291	0	0	1	1.04658235	4.391432	225	1	1.08444	1.00444;
	4	1	0	0	0	0	1	1.08319834	13.070786	150	1	1.10667	0.9;
	5	1	44.772	-7.2345	0	0	1	1.07702044	6.526503	225	1	1.08889	0.933333;
	6	1	54.873	5.46	0	0	1	1.07320309	6.113541	225	1	1.08889	0.933333;
	7	1	0	0	0	0	1	1.07277601	9.889429	380	1	1.10526	1.03947;
	8	1	0	0	0	0	1	1.06948511	9.641265	380	1	1.10526	1.03947;
	9	1	0	0	0	0	1	1.04481917	-12.70132	225	1	1.09035	1.00444;
	10	1	203.112	20.3385	0	0	1	1.04951276	-0.658977	225	1	1.08889	0.933333;
	11	1	34.944	6.825	0	0	1	1.0459501	-15.836983	225	1	1.08889	1.00444;
	12	1	53.3715	11.8755	0	0	1	1.02639077	-15.192312	225	1	1.08889	1.00444;
	13	1	96.2325	23.478	0	0	1	1.04596488	-15.833549	225	1	1.08889	1.00444;
	14	1	49.14	-5.733	0	0	1	1.03293001	-17.624907	225	1	1.08252	0.95;
	15	1	0	0	0	0	1	1.06561765	-6.670297	225	1	1.08889	1.00444;
	16	1	0	0	0	0	1	1.06561769	-6.670298	225	1	1.08889	1.00444;
	17	1	32.3505	-16.926	0	0	1	1.03239013	-17.785693	225	1	1.08889	0.888889;
	18	1	8.0535	-6.552	0	0	1	1.04779388	-4.758559	225	1	1.09633	0.986667;
	19	1	46.41	5.0505	0	0	1	1.03332704	-15.863365	225	1	1.08889	1.00444;
	20	1	9.4185	1.092	0	0	1	1.03336337	-15.860218	225	1	1.08889	1.00444;
	21	1	12.558	-39.7215	0	0	1	1.06026631	-11.649658	225	1	1.08889	1.00444;
	22	1	92.4105	-4.914	0	0	1	1.05405048	-11.015097	225	1	1.08889	0.986667;
	23	1	34.671	-3.6855	0	0	1	1.02045392	-22.815649	225	1	1.08889	0.888889;
	24	1	87.36	6.279	0	0	1	1.0419219	7.422329	225	1	1.08444	1.00889;
	25	1	97.734	63.7455	0	0	1	1.0327146	10.563879	225	1	1.08889	0.933333;
	26	1	143.871	9.4185	0	0	1	1.03627901	-12.009647	225	1	1.08889	1.00444;
	27	1	0	0	0	0	1	1.06750722	28.577109	380	1	1.10526	1.04842;
	28	1	0	0	0	0	1	1.06761194	28.594476	380	1	1.10526	1.04842;
	29	1	29.6205	1.2285	0	0	1	1.05467633	23.272667	225	1	1.08444	1.00889;
	30	1	94.0485	3.549	0	0	1	1.05208703	21.757488	225	1	1.08444	1.00889;
	31	1	69.069	17.3355	0	0	1	1.04607056	-15.724803	225	1	1.08889	1.00444;
	32	1	23.205	2.8665	0	0	1	1.03414611	8.81872	150	1	1.08	0.966667;
	33	1	52.143	8.5995	0	0	1	1.03660669	-16.38791	225	1	1.09212	1;
	34	1	0	0	0	0	1	1.05189575	-12.982871	380	1	1.10526	1.04785;
	35	1	121.485	13.104	0	0	1	1.0467617	-12.533041	225	1	1.08889	0.986667;
	36	1	0	0	0	-64	1	1.0285516	-18.471846	20	1	1.5	0.8;
	37	1	96.7785	-3.1395	0	0	1	1.0323635	-17.505777	225	1	1.08889	0.968889;
	38	1	185.913	-14.6055	0	0	1	1.03873156	-13.392619	380	1	1.10526	1;
	39	1	88.179	23.6145	0	0	1	1.06056292	0.593092	225	1	1.08889	0.933333;
	40	1	18.291	4.5045	0	0	1	1.02821205	-22.458748	225	1	1.08889	0.888889;
	41	1	45.4545	6.4155	0	0	1	1.02797484	-22.518815	225	1	1.08889	0.888889;
	42	1	288.834	-1.7745	0	0	1	1.0551636	-3.979244	225	1	1.08496	1.00444;
	43	1	125.7165	-12.4215	0	0	1	1.06339084	-13.190671	225	1	1.08889	1.00444;
	44	2	0	0	0	0	1	1.08432111	13.911328	150	1	1.10843	0.9;
	45	1	0	0	0	0	1	1.03434145	-16.687391	225	1	1.08889	1.00444;
	46	1	0	0	0	0	1	1.03434124	-16.687389	225	1	1.08889	1.00444;
	47	1	86.9505	115.3425	0	-80	1	1.03434	-16.687382	225	1	1.08889	1.00444;
	48	1	14.196	9.009	0	0	1	1.03441492	-12.473381	225	1	1.08889	1.00444;
	49	1	0	0	0	0	1	1.06185522	3.508789	225	1	1.08889	1;
	50	1	93.7755	22.5225	0	0	1	1.01766063	-22.872055	225	1	1.08889	0.888889;
	51	1	138.138	21.7035	0	0	1	1.01005614	-21.191789	225	1	1.08889	0.968889;
	52	1	0	0	0	0	1	1.01544164	-18.735592	380	1	1.10526	1;
	53	1	39.4485	14.469	0	0	1	1.04158599	22.179336	225	1	1.08444	1.00889;
	54	1	38.493	2.8665	0	0	1	1.04184141	22.177457	225	1	1.08444	1.00889;
	55	1	149.604	-17.6085	0	0	1	1.04624691	-11.932005	225	1	1.08889	1.00444;
	56	1	37.2645	-14.8785	0	0	1	1.05229216	3.102457	225	1	1.08945	0.933333;
	57	2	0	0	0	0	1	1.08245999	13.66675	150	1	1.10862	0.9;
	58	1	50.232	27.7095	0	0	1	1.04710395	26.076167	225	1	1.08444	1.00889;
	59	1	49.8225	42.042	0	0	1	1.04687521	26.078883	225	1	1.08444	1.00889;
	60	1	0	0	0	0	1	1.05020868	25.325969	225	1	1.08889	0.977778;
	61	1	11.466	-0.4095	0	0	1	1.03890596	-19.914114	225	1	1.08889	0.888889;
	62	1	18.018	-8.5995	0	0	1	1.07568117	7.041411	225	1	1.08889	0.933333;
	63	1	18.018	4.5045	0	0	1	1.02565911	-15.376709	225	1	1.08889	1.00444;
	64	1	30.9855	3.4125	0	0	1	1.04480096	-12.766666	225	1	1.08889	1.00444;
	65	1	15.561	-13.2405	0	0	1	1.06316143	3.189632	225	1	1.08889	1;
	66	1	13.923	-1.7745	0	0	1	1.03844389	-7.675423	225	1	1.08889	0.986667;
	67	1	0	0	0	0	1	1.03274452	-21.763032	225	1	1.08889	0.888889;
	68	1	0	0	0	0	1	1.02329399	-22.256839	225	1	1.08889	0.888889;
	69	1	0	0	0	0	1	1.03584758	-19.581907	380	1	1.10526	1.01316;
	70	1	53.508	3.822	0	0	1	1.03391508	-16.071617	225	1	1.08889	1.00444;
	71	1	26.3445	4.5045	0	-80	1	1.03464339	-14.875102	225	1	1.08889	1.00444;
	72	1	0	0	0	0	1	1.04638353	21.908606	225	1	1.08889	0.977778;
	73	1	0	0	0	0	1	1.0463805	21.908976	225	1	1.08889	0.977778;
	74	1	180.0435	4.368	0	0	1	1.04473074	21.243064	225	1	1.08444	1.00889;
	75	1	0	0	0	0	1	1.05468655	1.17106	225	1	1.08444	1.00444;
	76	1	0	0	0	0	1	1.05395583	7.306185	380	1	1.10263	1.04211;
	77	1	129.129	-2.5935	0	0	1	1.05454271	1.109587	225	1	1.08444	1.00444;
	78	1	-2.3205	-6.279	0	0	1	1.0271657	-15.063938	225	1	1.08936	1.00444;
	79	1	4.914	-9.828	0	0	1	1.02716407	-15.069424	225	1	1.08936	1.00444;
	80	1	48.321	14.8785	0	0	1	1.03602002	-14.10011	225	1	1.08889	0.888889;
	81	1	20.6115	0.9555	0	0	1	1.02564673	-20.466687	225	1	1.08124	0.95;
	82	1	78.351	24.57	0	0	1	1.02671888	-19.753246	225	1	1.08889	0.888889;
	83	1	122.7135	-7.917	0	0	1	1.05538302	0.599627	225	1	1.08889	1;
	84	1	0	0	0	0	1	1.02166532	6.437648	225	1	1.08889	1;
	85	1	327.327	23.8875	0	0	1	1.05913705	6.452919	380	1	1.10526	1.0507;
	86	1	48.4575	21.84	0	0	1	1.03301305	10.579386	225	1	1.08889	1;
	87	1	103.8765	31.395	0	0	1	1.05905296	3.513039	225	1	1.08889	1;
	88	2	0	0	0	0	1	1.01322758	14.352145	150	1	1.1	0.9;
	89	1	29.0745	16.38	0	0	1	1.01553937	-7.585905	225	1	1.08889	0.986667;
	90	1	15.288	-7.098	0	0	1	1.03785843	20.16845	225	1	1.08444	1.00889;
	91	1	0	0	0	0	1	1.05981506	-3.800108	380	1	1.10526	1.04211;
	92	1	0	0	0	0	1	1.0607709	-4.291066	380	1	1.10526	1.04211;
	93	1	15.9705	1.7745	0	0	1	1.05529695	0.744995	225	1	1.08889	1;
	94	1	8.3265	1.911	0	0	1	1.06410389	-8.513853	225	1	1.08889	1.00444;
	95	1	43.134	3.549	0	0	1	1.06680918	10.500589	150	1	1.1	0.9;
	96	1	94.0485	-15.9705	0	0	1	1.05979144	-0.4697	225	1	1.08889	1;
	97	2	0.273	0	0	0	1	1.03375666	-15.871259	225	1	1.08294	0.95;
	98	1	0	0	0	0	1	1.07671343	6.402328	225	1	1.08889	0.933333;
	99	1	0	0	0	0	1	1.06989081	9.687318	380	1	1.10526	1.03947;
	100	1	0	0	0	0	1	1.07308113	9.927725	380	1	1.10526	1.03947;
	101	1	0	0	0	0	1	1.0462554	-15.816727	225	1	1.08889	1.00444;
	102	1	41.0865	5.187	0	0	1	1.03195905	-17.889443	225	1	1.08889	1.00444;
	103	1	0	0	0	0	1	1.01568526	-8.501321	225	1	1.08889	0.986667;
	104	1	16.5165	6.1425	0	0	1	1.04606161	-15.82828	225	1	1.08889	1.00444;
	105	1	144.8265	-0.4095	0	0	1	1.03363823	2.306671	225	1	1.08889	0.933333;
	106	1	0	0	0	0	1	1.04418277	4.217864	380	1	1.10526	1.03947;
	107	1	59.1045	11.466	0	0	1	1.06070853	2.836105	225	1	1.08889	1;
	108	1	45.318	-10.2375	0	0	1	1.06573284	-12.534453	225	1	1.08986	1.00444;
	109	1	135.8175	-16.926	0	0	1	1.06218239	-7.081476	225	1	1.09612	1;
	110	1	158.886	-9.1455	0	0	1	1.04294177	-6.744123	225	1	1.08889	0.986667;
	111	1	89.6805	20.0655	0	0	1	1.04480187	-12.69815	225	1	1.09036	1.00444;
	112	1	146.328	28.938	0	0	1	1.01634198	-23.062901	225	1	1.08889	0.924444;
	113	1	77.6685	-3.6855	0	0	1	1.05701032	-1.180476	225	1	1.09614	0.986667;
	114	1	0	0	0	0	1	1.06343567	-0.700898	380	1	1.10526	1.03947;
	115	1	168.714	-27.027	0	0	1	1.03952993	-7.388839	225	1	1.08444	1.00444;
	116	1	0	0	0	-64	1	0.99249269	8.4189	20	1	1.4	0.8;
	117	1	45.4545	-29.0745	0	0	1	1.0420323	8.868794	225	1	1.08444	1.00889;
	118	1	0	0	0	0	1	1.04018712	12.099062	380	1	1.10263	1.02895;
	119	1	2.3205	-6.006	0	0	1	1.03431993	2.284944	225	1	1.08889	0.933333;
	120	1	191.5095	23.6145	0	0	1	1.03731665	10.279782	225	1	1.08889	0.933333;
	121	1	46.0005	-2.457	0	0	1	1.06544918	-12.016092	63	1	1.07937	0.920635;
	122	2	0	0	0	0	1	1.05561411	19.096672	225	1	1.07476	0.95;
	123	1	-2.5935	-7.371	0	0	1	1.08224169	11.969241	225	1	1.09768	1;
	124	1	0	0	0	0	1	1.07619842	12.000837	380	1	1.10526	1.05263;
	125	1	0	0	0	0	1	1.07627377	12.004248	380	1	1.10526	1.05263;
	126	1	0	0	0	0	1	1.07628225	12.008221	380	1	1.10526	1.05263;
	127	1	0	0	0	0	1	1.07625266	11.990671	380	1	1.10526	1.05263;
	128	1	0	0	0	0	1	1.05704097	-1.027814	225	1	1.09645	0.986667;
	129	1	0	0	0	0	1	1.05719981	-0.977246	225	1	1.09645	0.986667;
	130	1	0	0	0	0	1	1.06343819	-0.547381	380	1	1.10526	1.03947;
	131	1	105.5145	-14.469	0	0	1	1.03237369	-19.393397	225	1	1.08889	0.968889;
	132	1	38.3565	5.187	0	0	1	1.04183821	7.468809	225	1	1.08444	1.00889;
	133	1	-7.098	-12.831	0	0	1	1.05055031	-8.144946	380	1	1.10526	1.03947;
	134	1	145.236	10.92	0	0	1	1.05889588	11.581159	225	1	1.08889	0.933333;
	135	1	0	0	0	0	1	1.06219618	16.438156	380	1	1.10526	1.03947;
	136	1	155.2005	-11.3295	0	0	1	1.04566301	24.743555	225	1	1.08444	1.00889;
	137	1	60.879	0.6825	0	0	1	1.04694756	24.585195	225	1	1.08444	1.00889;
	138	1	225.498	-16.107	0	0	1	1.03505582	5.611568	225	1	1.08444	1.00444;
	139	1	39.858	2.8665	0	0	1	1.06172356	11.057487	225	1	1.08889	0.933333;
	140	1	44.772	6.006	0	0	1	1.06168275	11.051617	225	1	1.08889	0.933333;
	141	1	25.935	-24.7065	0	0	1	1.06572032	-12.512743	225	1	1.08952	1.00444;
	142	1	0	0	0	0	1	1.04575682	3.809951	225	1	1.09478	1;
	143	1	0	0	0	0	1	1.0457549	3.809973	225	1	1.09478	1;
	144	1	50.6415	7.644	0	0	1	1.0554274	0.992956	225	1	1.08889	1;
	145	1	27.3	-5.3235	0	0	1	1.06427075	-8.414955	225	1	1.08889	1.00444;
	146	1	52.0065	2.184	0	0	1	1.02679766	19.768057	225	1	1.08444	1.00889;
	147	1	33.852	-2.457	0	0	1	1.05332482	-0.141683	225	1	1.08889	1;
	148	1	0	0	0	0	1	1.05685958	16.84037	225	1	1.08444	1.00889;
	149	1	0	0	0	0	1	1.05679343	16.834421	225	1	1.08444	1.00889;
	150	1	0	0	0	0	1	1.05714443	21.82843	225	1	1.08444	1.00889;
	151	1	0	0	0	0	1	1.05666741	23.967116	380	1	1.10263	1.02895;
	152	1	211.9845	36.1725	0	0	1	1.0282772	-19.233378	225	1	1.08889	0.888889;
	153	1	0	0	0	0	1	1.08222345	11.96941	225	1	1.09766	1;
	154	1	0	0	0	0	1	1.07598535	11.917719	380	1	1.10526	1.05263;
	155	1	29.3475	6.006	0	0	1	1.03862814	-8.29774	225	1	1.08889	0.986667;
	156	1	35.763	2.8665	0	0	1	1.05105901	3.894164	225	1	1.08889	1;
	157	1	0	0	0	0	1	1.04236338	-14.37768	225	1	1.08444	1.00444;
	158	1	0	0	0	0	1	1.04236338	-14.37768	225	1	1.08444	1.00444;
	159	1	0	0	0	0	1	1.04237068	-14.377877	225	1	1.08444	1.00444;
	160	1	75.4845	-15.561	0	0	1	1.04236235	-14.377652	225	1	1.08444	1.00444;
	161	1	0	0	0	0	1	1.03471674	10.54844	225	1	1.08889	0.933333;
	162	1	40.95	16.7895	0	0	1	1.044414	-0.493721	225	1	1.08889	0.986667;
	163	1	0	0	0	-64	1	0.95768764	2.917639	20	1	1.4	0.9;
	164	1	0	0	0	0	1	1.04150672	3.83377	225	1	1.08941	1;
	165	1	0	0	0	0	1	1.05264465	9.107935	380	1	1.10526	1.05263;
	166	2	0	0	0	0	1	1.089175	5.886809	225	1	1.1	0.9;
	167	1	24.297	3.549	0	0	1	1.03205625	8.205703	150	1	1.08	0.966667;
	168	1	34.5345	-4.368	0	0	1	1.03387146	-15.770633	225	1	1.08889	1.00444;
	169	1	-5.0505	-2.73	0	0	1	1.03429796	-15.707788	225	1	1.08889	1.00444;
	170	1	50.9145	0.9555	0	0	1	1.01985083	-21.14975	225	1	1.08889	0.888889;
	171	1	147.2835	5.3235	0	0	1	1.05336136	-0.112408	225	1	1.08889	1;
	172	1	40.2675	9.282	0	0	1	1.04229681	-7.842006	225	1	1.08889	0.986667;
	173	1	0	0	0	0	1	1.07145612	17.184668	380	1	1.10526	1.03947;
	174	1	0	0	0	0	1	1.06910605	17.30649	380	1	1.10526	1.03947;
	175	1	0	0	0	0	1	1.06909508	17.30257	380	1	1.10526	1.03947;
	176	1	0	0	0	0	1	1.0714013	17.173137	380	1	1.10526	1.03947;
	177	1	38.3565	-13.65	0	0	1	1.04272034	-20.641474	225	1	1.08889	0.924444;
	178	1	-2.73	-1.5015	0	0	1	1.04826593	-11.824347	225	1	1.08889	0.986667;
	179	1	89.817	26.0715	0	0	1	1.03416088	-10.038141	225	1	1.08444	1.00444;
	180	1	-3.1395	1.638	0	0	1	1.04282329	0.15839	380	1	1.10263	1.04211;
	181	1	-3.1395	1.911	0	0	1	1.04287506	0.153406	380	1	1.10263	1.04211;
	182	1	0	0	0	0	1	1.03334909	-16.264129	225	1	1.08889	1.00444;
	183	1	0	0	0	0	1	1.04621487	20.077812	225	1	1.08889	0.977778;
	184	1	0	0	0	0	1	1.04622119	20.077734	225	1	1.08889	0.977778;
	185	1	114.114	-11.739	0	0	1	1.03081077	-20.187378	225	1	1.08889	0.968889;
	186	1	0	0	0	0	1	1.03850945	22.590102	225	1	1.08889	0.933333;
	187	1	0	0	0	0	1	1.03684728	22.05425	225	1	1.08889	0.933333;
	188	1	78.4875	13.923	0	0	1	1.04047222	-4.55052	225	1	1.08444	1.00444;
	189	1	242.151	-42.861	0	0	1	1.05676122	-1.326428	225	1	1.08444	1.00444;
	190	1	0	0	0	0	1	1.05440034	21.205715	225	1	1.08889	0.977778;
	191	1	0	0	0	0	1	1.04182716	-0.681764	225	1	1.08444	1.00444;
	192	1	169.533	-4.368	0	0	1	1.03226865	-19.662955	225	1	1.08889	0.951111;
	193	1	48.1845	2.5935	0	0	1	1.03523652	-14.824747	225	1	1.08889	1.00444;
	194	1	70.434	-5.46	0	0	1	1.04796361	-11.712152	225	1	1.08889	0.986667;
	195	1	0	0	0	-64	1	0.98650869	7.663922	20	1	1.4	0.8;
	196	1	23.0685	-2.457	0	0	1	1.03451289	8.281738	225	1	1.08444	1.00889;
	197	1	0	0	0	0	1	1.03834195	10.946037	380	1	1.10263	1.02895;
	198	1	52.689	-0.9555	0	0	1	1.03502857	-14.962031	225	1	1.08889	1.00444;
	199	2	0	0	0	0	1	1.02330187	-19.727548	225	1	1.07859	0.95;
	200	1	0	0	0	0	1	1.02329374	-19.730072	225	1	1.08889	0.888889;
...
];

%% generator data
%	bus	Pg	Qg	Qmax	Qmin	Vg	mBase	status	Pmax	Pmin	Pc1	Pc2	Qc1min	Qc1max	Qc2min	Qc2max	ramp_agc	ramp_10	ramp_30	ramp_q	apf
mpc.gen = [
	1247	51.434848	7.241961	27	-9	1	0	1	54	44	0	0	0	0	0	0	0	0	0	0	0;
	1247	51.434848	7.241961	27	-9	1	0	1	54	44	0	0	0	0	0	0	0	0	0	0	0;
	1334	23.4147	0.299946	7	-12	1	0	1	26.4	4.4	0	0	0	0	0	0	0	0	0	0	0;
	88	26.837457	5.321336	13	-9	1	0	1	30	5	0	0	0	0	0	0	0	0	0	0	0;
	122	24.576708	-2.890137	8	-17	1	0	1	28.08	4.68	0	0	0	0	0	0	0	0	0	0	0;
	891	23.598922	1.949764	2	1.9	1	0	1	24	4	0	0	0	0	0	0	0	0	0	0	0;
	802	16.398031	0.949729	1	0.9	1	0	1	16.8	2.8	0	0	0	0	0	0	0	0	0	0	0;
	1313	32.727318	2.746315	10	-10	1	0	1	36	6	0	0	0	0	0	0	0	0	0	0	0;
	389	10.128158	2.807394	5	1	1	0	1	13.2	2.2	0	0	0	0	0	0	0	0	0	0	0;
	389	10.128158	2.807394	5	1	1	0	1	13.2	2.2	0	0	0	0	0	0	0	0	0	0	0;
	958	41.666748	14.129285	15	-15	1	0	1	42	7	0	0	0	0	0	0	0	0	0	0	0;
	842	66.121525	0	0	0	1	0	1	66.48	11.08	0	0	0	0	0	0	0	0	0	0	0;
	904	49.989945	-0.019935	25	-20	1	0	1	50.4	8.4	0	0	0	0	0	0	0	0	0	0	0;
	904	49.989947	-0.019935	25	-20	1	0	1	50.4	8.4	0	0	0	0	0	0	0	0	0	0	0;
	1234	103.989494	-23.587935	26.1	-24.36	1	0	1	104.4	17.4	0	0	0	0	0	0	0	0	0	0	0;
	166	8.342052	6.445133	8.3	-8.3	1	0	1	9.96	1.66	0	0	0	0	0	0	0	0	0	0	0;
	440	3.757229	0	0	0	1	0	1	4.8	0	0	0	0	0	0	0	0	0	0	0	0;
	233	12.386126	-1.125665	5	-5	1	0	1	15.6	2.6	0	0	0	0	0	0	0	0	0	0	0;
	233	12.386126	-1.125665	5	-5	1	0	1	15.6	2.6	0	0	0	0	0	0	0	0	0	0	0;
	233	12.386126	-1.125665	5	-5	1	0	1	15.6	2.6	0	0	0	0	0	0	0	0	0	0	0;
	233	12.386126	-1.125665	5	-5	1	0	1	15.6	2.6	0	0	0	0	0	0	0	0	0	0	0;
	264	55.392266	4.827296	27	-9	1	0	1	60	10	0	0	0	0	0	0	0	0	0	0	0;
	868	6.52665	0	0	0	1	0	1	9.6	1.6	0	0	0	0	0	0	0	0	0	0	0;
	868	6.52665	0	0	0	1	0	1	9.6	1.6	0	0	0	0	0	0	0	0	0	0	0;
	860	56.807121	0	0	0	1	0	1	64.8	10.8	0	0	0	0	0	0	0	0	0	0	0;
	44	35.593624	-0.628931	10	-4	1	0	1	36	6	0	0	0	0	0	0	0	0	0	0	0;
	786	13.149285	-0.446433	4.63	-5.56	1	0	1	16.56	2.76	0	0	0	0	0	0	0	0	0	0	0;
	349	49.302633	-10.343446	12.42	-11.59	1	0	1	49.68	8.28	0	0	0	0	0	0	0	0	0	0	0;
	97	146.780644	39.98979	59	-26	1	0	1	156	26	0	0	0	0	0	0	0	0	0	0	0;
	690	24.813347	-7.567084	8	-8	1	0	1	25.2	4.2	0	0	0	0	0	0	0	0	0	0	0;
	956	63.195714	5.05962	17	-10	1	0	1	63.6	10.6	0	0	0	0	0	0	0	0	0	0	0;
	1094	58.164998	0	0	0	1	0	1	66	11	0	0	0	0	0	0	0	0	0	0	0;
	880	31.984097	4.000927	10	-3	1	0	1	32.4	5.4	0	0	0	0	0	0	0	0	0	0	0;
	880	31.984097	4.000927	10	-3	1	0	1	32.4	5.4	0	0	0	0	0	0	0	0	0	0	0;
	81	25.261277	0	0	0	1	0	1	30.36	5.06	0	0	0	0	0	0	0	0	0	0	0;
	466	61.107067	-12.229127	10	-13	1	0	1	62.4	10.4	0	0	0	0	0	0	0	0	0	0	0;
	1202	65.991061	-3.487138	35	-35	1	0	1	69.6	11.6	0	0	0	0	0	0	0	0	0	0	0;
	348	74.00982	-39.558178	40	-40	1	0	1	74.4	12.4	0	0	0	0	0	0	0	0	0	0	0;
	463	84.812108	0.493586	1	0	1	0	1	93.6	15.6	0	0	0	0	0	0	0	0	0	0	0;
	1298	12.801381	0.949731	1	0.9	1	0	1	13.2	2.2	0	0	0	0	0	0	0	0	0	0	0;
	1298	2.643249	-0.001075	0.1	-0.1	1	0	1	3	0	0	0	0	0	0	0	0	0	0	0	0;
	199	23.480547	1.774904	8	-8	1	0	1	28.2	4.7	0	0	0	0	0	0	0	0	0	0	0;
	988	46.389259	-13.432167	19	-19	1	0	1	46.8	7.8	0	0	0	0	0	0	0	0	0	0	0;
	14	28.050562	0	0	0	1	0	1	33.12	5.52	0	0	0	0	0	0	0	0	0	0	0;
	14	23.92351	0	0	0	1	0	1	28.8	4.8	0	0	0	0	0	0	0	0	0	0	0;
	1609	239.422732	66.859944	155.3	-217.55	1	0	1	804	200	0	0	0	0	0	0	0	0	0	0	0;
	1610	522.811937	154.720106	231.39	-190.58	1	0	1	840	140	0	0	0	0	0	0	0	0	0	0	0;
	1611	32.014504	-3.995798	24.62	-15.38	1	0	1	32.4	5.4	0	0	0	0	0	0	0	0	0	0	0;
	1612	95.329614	24.46113	43.86	-8.5	1	0	1	103.2	17.2	0	0	0	0	0	0	0	0	0	0	0;
	1613	51.440184	11.449009	22.19	-9.73	1	0	1	58.8	9.8	0	0	0	0	0	0	0	0	0	0	0;
	1614	11.653797	-4.136404	8.36	-8.36	1	0	1	38.4	6.4	0	0	0	0	0	0	0	0	0	0	0;
	1615	11.653797	-4.136404	8.36	-8.36	1	0	1	38.4	6.4	0	0	0	0	0	0	0	0	0	0	0;
	1616	11.653679	-4.338657	8.15	-8.57	1	0	1	38.4	6.4	0	0	0	0	0	0	0	0	0	0	0;
	1617	11.653679	-4.338657	8.15	-8.57	1	0	1	38.4	6.4	0	0	0	0	0	0	0	0	0	0	0;
	1618	106.792094	52.721596	54.57	-35.43	1	0	1	110.4	18.4	0	0	0	0	0	0	0	0	0	0	0;
	1619	104.905082	55.393368	56.48	-33.52	1	0	1	110.4	18.4	0	0	0	0	0	0	0	0	0	0	0;
	1620	1077.02701	249.936972	421.39	-376.62	1	0	1	1134.096	255.07	0	0	0	0	0	0	0	0	0	0	0;
	1621	1115.5677	256.884196	428.83	-369.21	1	0	1	1173.648	288.05	0	0	0	0	0	0	0	0	0	0	0;
	1622	1112.35376	256.916084	428.07	-369.92	1	0	1	1171.296	256.08	0	0	0	0	0	0	0	0	0	0	0;
	1623	1074.42056	247.831332	420.86	-377.13	1	0	1	1131.696	253.07	0	0	0	0	0	0	0	0	0	0	0;
	1624	292.743345	25.803074	153.03	-90.23	1	0	1	302.4	156	0	0	0	0	0	0	0	0	0	0	0;
	1625	290.344779	25.864486	152.44	-90.81	1	0	1	300	154	0	0	0	0	0	0	0	0	0	0	0;
	1626	289.6882	23.09862	105.68	-58.28	1	0	1	300	154	0	0	0	0	0	0	0	0	0	0	0;
	1627	355.387571	6.831102	228.81	-159.91	1	0	1	366	122	0	0	0	0	0	0	0	0	0	0	0;
	1628	176.122938	7.021652	94.32	-74.64	1	0	1	186	89	0	0	0	0	0	0	0	0	0	0	0;
	1629	66.344099	-8.528918	21.65	-18.77	1	0	1	69.6	11.6	0	0	0	0	0	0	0	0	0	0	0;
	1630	66.36235	-2.351824	16.01	-10.66	1	0	1	69.6	11.6	0	0	0	0	0	0	0	0	0	0	0;
	1631	66.344041	-8.700462	21.47	-18.95	1	0	1	69.6	11.6	0	0	0	0	0	0	0	0	0	0	0;
	1632	66.362364	-2.31301	16.05	-10.62	1	0	1	69.6	11.6	0	0	0	0	0	0	0	0	0	0	0;
	1633	66.36228	-2.545861	15.81	-10.86	1	0	1	69.6	11.6	0	0	0	0	0	0	0	0	0	0	0;
	1634	307.837854	88.924618	146.45	-90.18	1	0	1	315.6	133	0	0	0	0	0	0	0	0	0	0	0;
	1635	51.506881	26.683009	50.67	-38.09	1	0	1	53.952	8.99	0	0	0	0	0	0	0	0	0	0	0;
	1636	36.159228	10.937671	19.75	-16.25	1	0	1	38.4	6.4	0	0	0	0	0	0	0	0	0	0	0;
	1637	1014.43338	415.844352	530.99	-158.23	1	0	1	1123.548	266.29	0	0	0	0	0	0	0	0	0	0	0;
	1638	1049.35349	346.428584	533.69	-156.07	1	0	1	1131.384	272.82	0	0	0	0	0	0	0	0	0	0	0;
	1639	1003.02087	413.082469	537.68	-152.82	1	0	1	1109.136	274.28	0	0	0	0	0	0	0	0	0	0	0;
	1640	1027.28525	341.025393	529.89	-160.89	1	0	1	1107.36	272.8	0	0	0	0	0	0	0	0	0	0	0;
	1641	327.926208	-89.865467	681.04	-153	1	0	1	1569.6	318	0	0	0	0	0	0	0	0	0	0	0;
	1642	327.724613	-65.803392	681.03	-153	1	0	1	1569.6	318	0	0	0	0	0	0	0	0	0	0	0;
	1643	7.43135	0.219467	6.08	-1.92	1	0	1	42	7	0	0	0	0	0	0	0	0	0	0	0;
	1644	7.431347	0.349519	6.21	-1.79	1	0	1	42	7	0	0	0	0	0	0	0	0	0	0	0;
	1645	7.431348	0.349519	6.21	-1.79	1	0	1	42	7	0	0	0	0	0	0	0	0	0	0	0;
	1646	7.43135	0.249484	6.11	-1.89	1	0	1	42	7	0	0	0	0	0	0	0	0	0	0	0;
	1647	7.43135	0.249484	6.11	-1.89	1	0	1	42	7	0	0	0	0	0	0	0	0	0	0	0;
	1648	7.43135	0.249484	6.11	-1.89	1	0	1	42	7	0	0	0	0	0	0	0	0	0	0	0;
	1649	40.761386	3.105266	18.45	-13.16	1	0	1	44.364	7.39	0	0	0	0	0	0	0	0	0	0	0;
	1650	40.761386	3.105266	18.45	-13.16	1	0	1	44.364	7.39	0	0	0	0	0	0	0	0	0	0	0;
	1651	40.764403	3.777708	18.45	-11.35	1	0	1	44.364	7.39	0	0	0	0	0	0	0	0	0	0	0;
	1652	40.763219	3.505488	18.11	-11.7	1	0	1	44.364	7.39	0	0	0	0	0	0	0	0	0	0	0;
	1653	40.742826	2.845928	18.21	-13.41	1	0	1	44.364	7.39	0	0	0	0	0	0	0	0	0	0	0;
	1654	40.744089	3.111977	18.55	-13.05	1	0	1	44.364	7.39	0	0	0	0	0	0	0	0	0	0	0;
	1655	19.714872	3.334753	12.32	-7.68	1	0	1	24	4	0	0	0	0	0	0	0	0	0	0	0;
	1656	33.723803	2.661006	17.85	-13.79	1	0	1	37.176	6.2	0	0	0	0	0	0	0	0	0	0	0;
	1657	33.723812	2.660995	17.85	-13.79	1	0	1	37.176	6.2	0	0	0	0	0	0	0	0	0	0	0;
	1658	33.724228	2.786447	18.01	-13.62	1	0	1	37.176	6.2	0	0	0	0	0	0	0	0	0	0	0;
	1659	33.724228	2.786447	18.01	-13.62	1	0	1	37.176	6.2	0	0	0	0	0	0	0	0	0	0	0;
	1660	33.66114	2.478196	17.89	-13.75	1	0	1	37.176	6.2	0	0	0	0	0	0	0	0	0	0	0;
	1661	33.660722	2.360308	17.74	-13.91	1	0	1	37.176	6.2	0	0	0	0	0	0	0	0	0	0	0;
	1662	1516.44424	231.395946	656.06	-184.89	1	0	1	1596	337	0	0	0	0	0	0	0	0	0	0	0;
	1663	1317.15785	154.71345	656.92	-183.9	1	0	1	1632	367	0	0	0	0	0	0	0	0	0	0	0;
	1664	1286.87424	144.853385	648.03	-192.8	1	0	1	1632	367	0	0	0	0	0	0	0	0	0	0	0;
	1665	1.631723	-27.996951	281.46	-103.91	1	0	1	1.8	1.4	0	0	0	0	0	0	0	0	0	0	0;
	1666	282.37926	92.361743	94.03	-45.97	1	0	1	288	48	0	0	0	0	0	0	0	0	0	0	0;
	1667	282.385284	93.439773	95.11	-44.89	1	0	1	288	48	0	0	0	0	0	0	0	0	0	0	0;
	1668	1103.49091	79.553516	524.6	-107.2	1	0	1	1131.264	232.72	0	0	0	0	0	0	0	0	0	0	0;
	1669	1116.43143	79.175514	511.64	-99.08	1	0	1	1144.488	243.74	0	0	0	0	0	0	0	0	0	0	0;
	1670	1116.41475	78.993406	555.41	-99.32	1	0	1	1143.288	242.74	0	0	0	0	0	0	0	0	0	0	0;
	1671	699.83724	97.856282	682.28	-126.36	1	0	1	1803.6	403	0	0	0	0	0	0	0	0	0	0	0;
	1672	583.973649	89.679246	687.17	-121.66	1	0	1	1803.6	403	0	0	0	0	0	0	0	0	0	0	0;
	1673	1736.07814	122.141603	409.45	-352.29	1	0	1	1797.6	398	0	0	0	0	0	0	0	0	0	0	0;
	1674	1736.39149	106.400482	409.42	-352.33	1	0	1	1797.6	398	0	0	0	0	0	0	0	0	0	0	0;
	1675	86.867127	33.59741	51.88	-38.44	1	0	1	90	15	0	0	0	0	0	0	0	0	0	0	0;
	1676	86.867127	33.59741	51.88	-38.44	1	0	1	90	15	0	0	0	0	0	0	0	0	0	0	0;
	1677	86.867127	33.59741	51.88	-38.44	1	0	1	90	15	0	0	0	0	0	0	0	0	0	0	0;
	1678	86.867171	33.597442	51.88	-38.44	1	0	1	90	15	0	0	0	0	0	0	0	0	0	0	0;
	1679	110.701858	13.398573	104.12	-61.4	1	0	1	114	8.5	0	0	0	0	0	0	0	0	0	0	0;
	1680	110.701831	13.346787	103.94	-61.58	1	0	1	114	8.5	0	0	0	0	0	0	0	0	0	0	0;
	1681	80.165568	27.904857	86.67	-10.65	1	0	1	177.84	4.2	0	0	0	0	0	0	0	0	0	0	0;
	1682	821.367028	174.322203	220.22	-59.17	1	0	1	822	180	0	0	0	0	0	0	0	0	0	0	0;
	1683	728.524362	73.165788	330.28	-165.24	1	0	1	732	310	0	0	0	0	0	0	0	0	0	0	0;
	1684	718.363863	58.55619	297.67	-191.83	1	0	1	732	310	0	0	0	0	0	0	0	0	0	0	0;
	1685	252.559119	11.692365	254.82	-293.65	1	0	1	840	205	0	0	0	0	0	0	0	0	0	0	0;
	1686	54.212851	-4.59881	15.6	-13.8	1	0	1	60	10	0	0	0	0	0	0	0	0	0	0	0;
	1687	54.207546	-4.905685	15.2	-14.2	1	0	1	60	10	0	0	0	0	0	0	0	0	0	0	0;
	1688	54.215391	-4.44216	15.81	-13.6	1	0	1	60	10	0	0	0	0	0	0	0	0	0	0	0;
	1689	54.215451	-4.44249	15.81	-13.6	1	0	1	60	10	0	0	0	0	0	0	0	0	0	0	0;
	1690	54.215451	-4.44249	15.81	-13.6	1	0	1	60	10	0	0	0	0	0	0	0	0	0	0	0;
	1691	54.212851	-4.59881	15.6	-13.8	1	0	1	60	10	0	0	0	0	0	0	0	0	0	0	0;
	1692	1130.41944	308.859837	532.91	-90.14	1	0	1	1200	280	0	0	0	0	0	0	0	0	0	0	0;
	1693	1131.3149	309.380062	535.45	-87.61	1	0	1	1200	280	0	0	0	0	0	0	0	0	0	0	0;
	1694	1132.86639	311.33188	567.71	-88.3	1	0	1	1200	280	0	0	0	0	0	0	0	0	0	0	0;
	1696	64.446298	3.075636	17.35	-17.35	1	0	1	68.4	11.4	0	0	0	0	0	0	0	0	0	0	0;
	1697	480.420042	56.456818	219.77	-155.72	1	0	1	541.2	239	0	0	0	0	0	0	0	0	0	0	0;
	1698	66.394122	13.039335	51.25	-10.63	1	0	1	75.6	21	0	0	0	0	0	0	0	0	0	0	0;
	1699	284.782287	-15.783319	258.1	-182.18	1	0	1	520.56	248.8	0	0	0	0	0	0	0	0	0	0	0;
	1700	193.262397	55.173983	71.21	-44.25	1	0	1	201.804	81.81	0	0	0	0	0	0	0	0	0	0	0;
	1701	193.820404	56.607391	73.34	-37.69	1	0	1	202.32	82.28	0	0	0	0	0	0	0	0	0	0	0;
	1702	289.174268	95.180678	113.53	-43.7	1	0	1	297.852	53.91	0	0	0	0	0	0	0	0	0	0	0;
	1703	277.033598	83.981282	100.92	-59.36	1	0	1	285.708	43.97	0	0	0	0	0	0	0	0	0	0	0;
	1704	231.4193	-15.248888	525.14	-88.61	1	0	1	1103.628	229.69	0	0	0	0	0	0	0	0	0	0	0;
	1705	231.4193	-15.248888	525.14	-88.61	1	0	1	1103.628	229.69	0	0	0	0	0	0	0	0	0	0	0;
	1706	238.424267	-15.080361	526.77	-86.99	1	0	1	1112.028	236.69	0	0	0	0	0	0	0	0	0	0	0;
	1707	253.35437	-16.220355	530.29	-83.48	1	0	1	1130.028	251.69	0	0	0	0	0	0	0	0	0	0	0;
	1708	38.199794	-9.58861	10.32	-9.68	1	0	1	38.4	6.4	0	0	0	0	0	0	0	0	0	0	0;
	1709	43.411316	-1.41498	19.22	-17.67	1	0	1	47.856	7.98	0	0	0	0	0	0	0	0	0	0	0;
	1710	43.411322	-1.412838	19.34	-17.74	1	0	1	47.856	7.98	0	0	0	0	0	0	0	0	0	0	0;
	1711	43.411356	-1.40417	19.24	-17.66	1	0	1	47.856	7.98	0	0	0	0	0	0	0	0	0	0	0;
	1712	1584.69627	282.459045	398.39	-396.86	1	0	1	1656	340	0	0	0	0	0	0	0	0	0	0	0;
	1713	1582.04071	280.250908	371.08	-424.16	1	0	1	1656	340	0	0	0	0	0	0	0	0	0	0	0;
	1714	22.883631	2.3954	5.35	-2.57	1	0	1	28.8	4.8	0	0	0	0	0	0	0	0	0	0	0;
	1715	22.888559	2.520912	5.48	-2.43	1	0	1	28.8	4.8	0	0	0	0	0	0	0	0	0	0	0;
	1716	22.870176	2.062135	5	-2.93	1	0	1	28.8	4.8	0	0	0	0	0	0	0	0	0	0	0;
	1717	22.881378	2.338646	5.29	-2.63	1	0	1	28.8	4.8	0	0	0	0	0	0	0	0	0	0	0;
	1718	23.18203	3.813566	10	-4.98	1	0	1	28.788	4.8	0	0	0	0	0	0	0	0	0	0	0;
	1719	23.152366	2.258804	8.26	-6.79	1	0	1	28.788	4.8	0	0	0	0	0	0	0	0	0	0	0;
	1720	23.184786	3.966972	10.17	-4.8	1	0	1	28.788	4.8	0	0	0	0	0	0	0	0	0	0	0;
	1721	23.143137	1.805001	1.81	1.8	1	0	1	28.788	4.8	0	0	0	0	0	0	0	0	0	0	0;
	1722	23.184656	3.958118	10.16	-4.81	1	0	1	28.788	4.8	0	0	0	0	0	0	0	0	0	0	0;
	1723	31.431835	2.351652	12.23	-7.55	1	0	1	34.776	5.8	0	0	0	0	0	0	0	0	0	0	0;
	1724	31.432181	2.424646	12.31	-7.46	1	0	1	34.776	5.8	0	0	0	0	0	0	0	0	0	0	0;
	1725	1507.77234	218.795976	615.09	-439.22	1	0	1	1569.6	288	0	0	0	0	0	0	0	0	0	0	0;
	1726	1508.73771	219.10689	614.63	-439.67	1	0	1	1569.6	288	0	0	0	0	0	0	0	0	0	0	0;
	1727	487.020349	39.617171	255.9	-84.1	1	0	1	549.912	89.26	0	0	0	0	0	0	0	0	0	0	0;
	1728	347.870353	153.435275	524.88	-98.23	1	0	1	1136.4	237	0	0	0	0	0	0	0	0	0	0	0;
	1729	353.360697	153.879106	528.27	-94.91	1	0	1	1136.4	267	0	0	0	0	0	0	0	0	0	0	0;
	1730	387.812233	164.342783	529.5	-93.67	1	0	1	1136.4	237	0	0	0	0	0	0	0	0	0	0	0;
	1731	365.769244	159.976269	528.59	-94.53	1	0	1	1136.4	237	0	0	0	0	0	0	0	0	0	0	0;
	1732	349.634015	154.41319	529.53	-93.65	1	0	1	1136.4	237	0	0	0	0	0	0	0	0	0	0	0;
	1733	272.568035	115.377988	504.13	-118.98	1	0	1	1136.4	237	0	0	0	0	0	0	0	0	0	0	0;
	1734	280.34337	63.483838	104.81	-37.31	1	0	1	288	125	0	0	0	0	0	0	0	0	0	0	0;
	1735	199.396903	58.073481	69.06	-76.42	1	0	1	203.28	33.88	0	0	0	0	0	0	0	0	0	0	0;
	1736	199.396883	58.091567	69.08	-76.5	1	0	1	203.28	33.88	0	0	0	0	0	0	0	0	0	0	0;
	1737	199.39668	57.940987	68.92	-76.49	1	0	1	203.28	33.88	0	0	0	0	0	0	0	0	0	0	0;
	1738	199.396853	57.986958	68.97	-76.69	1	0	1	203.28	33.88	0	0	0	0	0	0	0	0	0	0	0;
	1739	199.397018	58.110093	69.1	-76.58	1	0	1	203.28	33.88	0	0	0	0	0	0	0	0	0	0	0;
	1740	199.397018	58.110363	69.1	-76.54	1	0	1	203.28	33.88	0	0	0	0	0	0	0	0	0	0	0;
	1741	199.396473	57.703343	68.67	-76.85	1	0	1	203.28	33.88	0	0	0	0	0	0	0	0	0	0	0;
	1742	199.396498	57.721712	68.69	-76.92	1	0	1	203.28	33.88	0	0	0	0	0	0	0	0	0	0	0;
	1743	320.348351	18.116527	272.9	-127.1	1	0	1	548.16	216.8	0	0	0	0	0	0	0	0	0	0	0;
	1744	308.621531	18.097579	159.71	-80.29	1	0	1	312	130	0	0	0	0	0	0	0	0	0	0	0;
	1746	293.91753	30.447616	199.31	-189.68	1	0	1	702	250	0	0	0	0	0	0	0	0	0	0	0;
	1747	20.160355	-3.375097	20.64	-19.15	1	0	1	23.976	4	0	0	0	0	0	0	0	0	0	0	0;
	1748	24.780363	-3.470078	20.43	-19.38	1	0	1	28.776	4.8	0	0	0	0	0	0	0	0	0	0	0;
	1749	24.781397	-2.966423	21	-18.66	1	0	1	28.776	4.8	0	0	0	0	0	0	0	0	0	0	0;
	1750	24.780916	-3.204649	20.73	-19	1	0	1	28.776	4.8	0	0	0	0	0	0	0	0	0	0	0;
	1751	24.783112	-2.432753	21.26	-18.37	1	0	1	28.776	4.8	0	0	0	0	0	0	0	0	0	0	0;
	1752	24.785136	-2.719615	21.26	-18.37	1	0	1	28.776	4.8	0	0	0	0	0	0	0	0	0	0	0;
	1753	37.116087	-1.331734	9.31	-8.35	1	0	1	42	7	0	0	0	0	0	0	0	0	0	0	0;
	1754	37.114953	-1.505761	9.12	-8.54	1	0	1	42	7	0	0	0	0	0	0	0	0	0	0	0;
	1755	37.095594	-4.053231	10.16	-13.09	1	0	1	42	7	0	0	0	0	0	0	0	0	0	0	0;
	1756	37.116087	-1.331734	9.31	-8.35	1	0	1	42	7	0	0	0	0	0	0	0	0	0	0	0;
	1757	278.285808	60.233316	104.52	-144.76	1	0	1	282	120	0	0	0	0	0	0	0	0	0	0	0;
	1758	85.134589	45.020098	47.31	-36.19	1	0	1	87.6	14.6	0	0	0	0	0	0	0	0	0	0	0;
	1759	80.354757	45.867376	51.14	-32.55	1	0	1	82.8	13.8	0	0	0	0	0	0	0	0	0	0	0;
	1760	90.49236	44.046216	46.31	-34.94	1	0	1	93	15.5	0	0	0	0	0	0	0	0	0	0	0;
	1761	11.140763	-3.239827	13.16	-10.68	1	0	1	37.2	6.2	0	0	0	0	0	0	0	0	0	0	0;
	1762	11.140884	-3.10343	13.31	-10.53	1	0	1	37.2	6.2	0	0	0	0	0	0	0	0	0	0	0;
	1763	11.141011	-2.957759	13.47	-10.37	1	0	1	37.2	6.2	0	0	0	0	0	0	0	0	0	0	0;
	1764	54.723395	8.308452	28.9	-16.53	1	0	1	60	10	0	0	0	0	0	0	0	0	0	0	0;
	1765	290.198591	48.967589	158.82	-22.05	1	0	1	300	137	0	0	0	0	0	0	0	0	0	0	0;
...
];

%% branch data
%	fbus	tbus	r	x	b	rateA	rateB	rateC	ratio	angle	status	angmin	angmax
mpc.branch = [
	692	1	0.002607	0.017462	0.0324	540	540	540	0	0	1	-360	360;
	27	2	2.1e-05	0.000125	0.1386	737	737	737	0	0	1	-360	360;
	661	2	0.000145	0.001877	0.0635	2487	2487	2487	0	0	1	-360	360;
	1250	2	0.000319	0.003234	0.0838	1841	1841	1841	0	0	1	-360	360;
	28	2	2.1e-05	0.000125	0.1386	737	737	737	0	0	1	-360	360;
	138	3	0.006163	0.041067	0.0759	446	446	446	0	0	1	-360	360;
	663	3	0.000652	0.004369	0.0081	558	558	558	0	0	1	-360	360;
	1029	4	0.009733	0.034089	0.0185	0	0	0	0	0	1	-360	360;
	98	5	0.000277	0.002015	0.003	288	288	288	0	0	1	-360	360;
	279	6	0.00881	0.033995	0.0607	289	289	289	0	0	1	-360	360;
	323	6	0.004642	0.019832	0.0354	255	255	255	0	0	1	-360	360;
	720	5	0.008861	0.03506	0.0623	288	288	288	0	0	1	-360	360;
	742	5	0.006993	0.032869	0.0557	255	255	255	0	0	1	-360	360;
	1308	6	0.002173	0.008731	0.0152	0	0	0	0	0	1	-360	360;
	1327	5	0.00077	0.003121	0.0051	0	0	0	0	0	1	-360	360;
	1505	6	0.004109	0.016138	0.0284	288	288	288	0	0	1	-360	360;
	99	8	8.3e-05	0.000907	0.0202	1034	1034	1034	0	0	1	-360	360;
	311	8	0.000552	0.006726	0.0939	1786	1786	1786	0	0	1	-360	360;
	612	8	0.000512	0.008012	0.2455	2462	2462	2462	0	0	1	-360	360;
	865	8	0.001107	0.00918	0.1906	1644	1644	1644	0	0	1	-360	360;
	100	7	6.2e-05	0.000741	0.0173	1095	1095	1095	0	0	1	-360	360;
	612	8	0.000512	0.008019	0.2455	2462	2462	2462	0	0	1	-360	360;
	612	7	0.001153	0.013123	0.1841	1433	1433	1433	0	0	1	-360	360;
	111	9	0.000158	0.000672	0.0719	331	331	331	0	0	1	-360	360;
	1110	9	4.5e-05	8.9e-05	0.002	268	268	268	0	0	1	-360	360;
	340	10	0.00478	0.028622	0.0547	455	455	455	0	0	1	-360	360;
	339	10	0.00478	0.028583	0.0547	455	455	455	0	0	1	-360	360;
	104	11	0.000257	0.000514	0.0294	0	0	0	0	0	1	-360	360;
	740	12	0.000257	0.002153	0.2147	452	452	452	0	0	1	-360	360;
	945	12	0.000277	0.000869	0.0931	481	481	481	0	0	1	-360	360;
	938	13	0.000237	0.00083	0.1863	268	268	268	0	0	1	-360	360;
	978	13	0.000178	0.000612	0.1377	268	268	268	0	0	1	-360	360;
	37	14	0.002568	0.011753	0.0203	424	424	424	0	0	1	-360	360;
	1410	14	0.002568	0.011615	0.0228	290	290	290	0	0	1	-360	360;
	1035	16	9.9e-05	0.00077	0.078	379	379	379	0	0	1	-360	360;
	1035	15	9.9e-05	0.00077	0.077	379	379	379	0	0	1	-360	360;
	1410	17	0.000514	0.003437	0.0061	290	290	290	0	0	1	-360	360;
	1414	17	0.005476	0.036879	0.1255	522	522	522	0	0	1	-360	360;
	37	17	0.000514	0.003457	0.0061	418	418	418	0	0	1	-360	360;
	853	18	0.003477	0.01118	0.0187	304	304	304	0	0	1	-360	360;
	1069	18	0.000612	0.003121	0.0152	270	270	270	0	0	1	-360	360;
	1141	20	2.4e-05	0.000144	0.0213	701	701	701	0	0	1	-360	360;
	1141	19	7.1e-05	0.000162	0.0162	251	251	251	0	0	1	-360	360;
	955	21	0.000257	0.001165	0.002	405	405	405	0	0	1	-360	360;
	469	22	0.005709	0.037926	0.0688	492	492	492	0	0	1	-360	360;
	1479	22	0.001758	0.011654	0.0208	492	492	492	0	0	1	-360	360;
	68	23	0.001383	0.009462	0.0172	463	463	463	0	0	1	-360	360;
	438	23	0.00156	0.006933	0.0121	432	432	432	0	0	1	-360	360;
	594	23	0.006376	0.028733	0.0506	432	432	432	0	0	1	-360	360;
	970	23	0.00158	0.010627	0.0192	481	481	481	0	0	1	-360	360;
	831	24	0.001086	0.003536	0.3766	506	506	506	0	0	1	-360	360;
	831	24	0.001086	0.003536	0.3766	506	506	506	0	0	1	-360	360;
	120	25	0.004741	0.020385	0.0334	0	0	0	0	0	1	-360	360;
	1461	25	0.009027	0.048869	0.084	351	351	351	0	0	1	-360	360;
	1482	25	0.003516	0.016257	0.0273	311	311	311	0	0	1	-360	360;
	282	26	0.000514	0.003417	0.0278	452	452	452	0	0	1	-360	360;
	302	26	0.001084	0.007198	0.0132	448	448	448	0	0	1	-360	360;
	1433	26	0.000523	0.002436	0.0167	348	348	348	0	0	1	-360	360;
	282	26	0.000514	0.003457	0.0203	356	356	356	0	0	1	-360	360;
	302	26	0.001086	0.007249	0.0132	540	540	540	0	0	1	-360	360;
	1432	26	0.000553	0.002469	0.0157	405	405	405	0	0	1	-360	360;
	302	26	0.001086	0.007269	0.0132	540	540	540	0	0	1	-360	360;
	828	29	0.001837	0.011694	0.0759	467	467	467	0	0	1	-360	360;
	943	29	0.001067	0.007131	0.0132	413	413	413	0	0	1	-360	360;
	1248	29	0.001284	0.008593	0.0152	541	541	541	0	0	1	-360	360;
	1249	29	0.001284	0.008593	0.0162	541	541	541	0	0	1	-360	360;
	1249	29	0.001284	0.008533	0.0162	541	541	541	0	0	1	-360	360;
	204	30	0.000494	0.000928	0.0699	0	0	0	0	0	1	-360	360;
	320	30	0.000184	0.00159	0.1661	422	422	422	0	0	1	-360	360;
	1129	30	0.000198	0.001711	0.1711	385	385	385	0	0	1	-360	360;
	1147	30	0.000751	0.003358	0.1534	385	385	385	0	0	1	-360	360;
	338	31	0.000178	0.001047	0.1499	452	452	452	0	0	1	-360	360;
	938	31	0.000316	0.002232	0.2774	452	452	452	0	0	1	-360	360;
	1236	32	0.037227	0.106836	0.0328	0	0	0	0	0	1	-360	360;
	1421	32	0.006089	0.020756	0.0067	0	0	0	0	0	1	-360	360;
	832	33	0.000729	0.005118	0.0933	389	389	389	0	0	1	-360	360;
	832	33	0.000755	0.005235	0.0909	419	419	419	0	0	1	-360	360;
	220	34	0.001787	0.01946	0.4214	1579	1579	1579	0	0	1	-360	360;
	470	35	0.001719	0.00877	0.0157	321	321	321	0	0	1	-360	360;
	1157	35	0.009165	0.04318	0.077	321	321	321	0	0	1	-360	360;
	131	37	0.004879	0.032454	0.0602	487	487	487	0	0	1	-360	360;
	185	37	0.006341	0.042746	0.0785	418	418	418	0	0	1	-360	360;
	200	37	0.006914	0.031249	0.0547	327	327	327	0	0	1	-360	360;
	290	38	0.000582	0.007652	0.2643	2487	2487	2487	0	0	1	-360	360;
	749	38	0.001648	0.021634	0.748	2487	2487	2487	0	0	1	-360	360;
	933	38	0.000838	0.014301	0.5198	2487	2487	2487	0	0	1	-360	360;
	1261	38	0.001163	0.015312	0.5285	2487	2487	2487	0	0	1	-360	360;
	290	38	0.000575	0.007576	0.2614	2487	2487	2487	0	0	1	-360	360;
	749	38	0.001646	0.021633	0.7479	2487	2487	2487	0	0	1	-360	360;
	933	38	0.000838	0.014287	0.5198	2487	2487	2487	0	0	1	-360	360;
	1260	38	0.00117	0.015339	0.5285	2487	2487	2487	0	0	1	-360	360;
	1261	38	0.001821	0.017874	0.4318	1382	1382	1382	0	0	1	-360	360;
	547	39	0.000672	0.003477	0.0365	254	254	254	0	0	1	-360	360;
	1401	40	0.000632	0.004188	0.0081	471	471	471	0	0	1	-360	360;
	1401	41	0.000612	0.004148	0.0071	471	471	471	0	0	1	-360	360;
	1021	42	0.000672	0.004405	0.0081	541	541	541	0	0	1	-360	360;
	1503	42	0.000968	0.004602	0.0081	304	304	304	0	0	1	-360	360;
	1021	42	0.000632	0.004444	0.0081	440	440	440	0	0	1	-360	360;
	1506	43	0.001975	0.013215	0.0243	541	541	541	0	0	1	-360	360;
	1507	43	0.001956	0.013037	0.0243	0	0	0	0	0	1	-360	360;
	1298	44	0.002933	0.010267	0.0032	0	0	0	0	0	1	-360	360;
	1411	44	0.0028	0.007511	0.0022	0	0	0	0	0	1	-360	360;
	47	46	2e-05	0.000198	0.0121	261	261	261	0	0	1	-360	360;
	47	45	2e-05	0.000198	0.0142	261	261	261	0	0	1	-360	360;
	292	47	0.002037	0.010904	0.0187	352	352	352	0	0	1	-360	360;
	313	47	0.000415	0.002015	0.1266	428	428	428	0	0	1	-360	360;
	364	47	0.000395	0.00156	0.1893	426	426	426	0	0	1	-360	360;
	597	47	4e-05	0.000178	0.0152	0	0	0	0	0	1	-360	360;
	822	47	0.001323	0.012444	0.0678	935	935	935	0	0	1	-360	360;
	1208	47	0.000454	0.002133	0.2511	268	268	268	0	0	1	-360	360;
	1357	47	0.000119	0.000691	0.1002	387	387	387	0	0	1	-360	360;
	1393	47	0.00083	0.005175	0.0203	323	323	323	0	0	1	-360	360;
	822	47	0.001314	0.012115	0.0673	943	943	943	0	0	1	-360	360;
	1355	47	5.9e-05	0.000217	0.0496	323	323	323	0	0	1	-360	360;
	1354	47	5.9e-05	0.000217	0.0466	323	323	323	0	0	1	-360	360;
	1146	48	0.000158	0.000948	0.002	348	348	348	0	0	1	-360	360;
	688	49	0.001521	0.007076	0.0118	302	302	302	0	0	1	-360	360;
	1244	49	0.002469	0.011457	0.0203	315	315	315	0	0	1	-360	360;
	397	50	0.001442	0.009699	0.0172	566	566	566	0	0	1	-360	360;
	418	50	0.001422	0.009541	0.0172	566	566	566	0	0	1	-360	360;
	450	51	0.004681	0.028227	0.0516	440	440	440	0	0	1	-360	360;
	748	51	0.001185	0.008	0.0152	575	575	575	0	0	1	-360	360;
	1511	51	0.005333	0.02722	0.0491	440	440	440	0	0	1	-360	360;
	749	52	0.000145	0.001911	0.0661	2487	2487	2487	0	0	1	-360	360;
	1398	52	0.000253	0.003323	0.1148	2487	2487	2487	0	0	1	-360	360;
	1079	54	0.000494	0.002252	0.004	406	406	406	0	0	1	-360	360;
	1079	53	0.000494	0.002252	0.004	406	406	406	0	0	1	-360	360;
	315	55	0.009857	0.04478	0.077	405	405	405	0	0	1	-360	360;
	798	55	0.017106	0.078321	0.1387	362	362	362	0	0	1	-360	360;
	1264	55	0.010272	0.048691	0.0866	354	354	354	0	0	1	-360	360;
	453	56	0.012978	0.059338	0.1002	409	409	409	0	0	1	-360	360;
	812	56	0.01197	0.056632	0.0942	262	262	262	0	0	1	-360	360;
	1411	57	0.000578	0.001156	0.0004	0	0	0	0	0	1	-360	360;
	1070	59	0.000316	0.001679	0.0192	0	0	0	0	0	1	-360	360;
	1070	58	0.000316	0.001679	0.0192	0	0	0	0	0	1	-360	360;
	697	60	0.000277	0.000573	0.0334	0	0	0	0	0	1	-360	360;
	1013	61	0.001055	0.004836	0.0081	432	432	432	0	0	1	-360	360;
	981	62	0.002114	0.008553	0.0152	346	346	346	0	0	1	-360	360;
	337	64	0.000158	0.000652	0.084	0	0	0	0	0	1	-360	360;
	877	63	0.000198	0.000731	0.0942	385	385	385	0	0	1	-360	360;
	1244	65	0.00324	0.012616	0.0225	302	302	302	0	0	1	-360	360;
	1379	66	0.007522	0.029736	0.0496	303	303	303	0	0	1	-360	360;
	1525	66	0.006809	0.03043	0.0521	380	380	380	0	0	1	-360	360;
	397	68	0.002153	0.014736	0.0273	565	565	565	0	0	1	-360	360;
	461	67	0.000581	0.003838	0.0071	507	507	507	0	0	1	-360	360;
	774	67	0.001857	0.020306	0.0557	566	566	566	0	0	1	-360	360;
	1325	68	0.002331	0.015526	0.0278	549	549	549	0	0	1	-360	360;
	1462	67	0.001345	0.008968	0.0162	566	566	566	0	0	1	-360	360;
	462	67	0.000573	0.003911	0.0071	415	415	415	0	0	1	-360	360;
	627	67	0.001896	0.012701	0.0233	501	501	501	0	0	1	-360	360;
	545	69	0.000602	0.006717	0.1357	1725	1725	1725	0	0	1	-360	360;
	775	69	0.00063	0.007098	0.1588	1916	1916	1916	0	0	1	-360	360;
	1402	69	0.000367	0.004631	0.1126	2275	2275	2275	0	0	1	-360	360;
	775	69	0.000472	0.006201	0.2137	2487	2487	2487	0	0	1	-360	360;
	1398	69	0.001504	0.019298	0.4577	2275	2275	2275	0	0	1	-360	360;
	193	71	0.000158	0.001106	0.1357	461	461	461	0	0	1	-360	360;
	369	70	0.000219	0.00193	0.1954	407	407	407	0	0	1	-360	360;
	396	70	0.000158	0.000909	0.1316	428	428	428	0	0	1	-360	360;
	965	70	0.000411	0.00356	0.3564	416	416	416	0	0	1	-360	360;
	1081	71	0.000158	0.001264	0.1286	416	416	416	0	0	1	-360	360;
	828	72	0.000198	0.001383	0.003	420	420	420	0	0	1	-360	360;
	828	73	0.000217	0.001402	0.003	420	420	420	0	0	1	-360	360;
	381	74	0.001304	0.008691	0.0152	525	525	525	0	0	1	-360	360;
	828	74	0.000691	0.004662	0.0091	541	541	541	0	0	1	-360	360;
	77	75	9.9e-05	0.000415	0.0456	434	434	434	0	0	1	-360	360;
	294	76	1e-06	0.000104	0.078	1051	1051	1051	0	0	1	-360	360;
	427	76	0.000353	0.004584	0.1184	2357	2357	2357	0	0	1	-360	360;
	689	76	0.000699	0.009179	0.3177	2487	2487	2487	0	0	1	-360	360;
	427	76	0.000353	0.004584	0.1184	2357	2357	2357	0	0	1	-360	360;
	689	76	0.000734	0.009245	0.3148	2487	2487	2487	0	0	1	-360	360;
	296	76	7e-06	0.000104	0.0029	1382	1382	1382	0	0	1	-360	360;
	295	76	7e-06	0.000104	0.0029	1382	1382	1382	0	0	1	-360	360;
	426	77	0.002556	0.017333	0.0805	418	418	418	0	0	1	-360	360;
	1021	77	0.008849	0.062617	0.1144	471	471	471	0	0	1	-360	360;
	1413	78	2.2e-05	9.9e-05	0.001	405	405	405	0	0	1	-360	360;
	1412	79	2e-05	9.9e-05	0	0	0	0	0	0	1	-360	360;
	728	80	0.000573	0.002588	0.0051	388	388	388	0	0	1	-360	360;
	1414	81	2e-05	0.000198	0.001	566	566	566	0	0	1	-360	360;
	615	82	0.000138	0.00077	0.001	272	272	272	0	0	1	-360	360;
	171	83	0.001171	0.007842	0.0166	296	296	296	0	0	1	-360	360;
	840	83	0.002212	0.014979	0.0388	401	401	401	0	0	1	-360	360;
	1164	84	0.000691	0.002588	0.1691	0	0	0	0	0	1	-360	360;
	1165	84	0.000691	0.002588	0.1509	0	0	0	0	0	1	-360	360;
	542	85	0.001627	0.014855	0.3899	1717	1717	1717	0	0	1	-360	360;
	542	85	0.001676	0.013899	0.4216	1711	1711	1711	0	0	1	-360	360;
	509	86	0.003081	0.020286	0.0365	420	420	420	0	0	1	-360	360;
	854	86	0.00241	0.01603	0.0294	440	440	440	0	0	1	-360	360;
	1277	87	0.000176	0.001385	0.1521	378	378	378	0	0	1	-360	360;
	1329	87	0.001817	0.012642	0.0233	440	440	440	0	0	1	-360	360;
	1329	87	0.001865	0.012502	0.0229	502	502	502	0	0	1	-360	360;
	276	88	0.007422	0.024489	0.0081	0	0	0	0	0	1	-360	360;
	459	88	0.028356	0.083956	0.0274	0	0	0	0	0	1	-360	360;
	712	88	0.016844	0.058489	0.0198	0	0	0	0	0	1	-360	360;
	1313	88	0.009067	0.028133	0.0095	0	0	0	0	0	1	-360	360;
	1415	89	0.000593	0.00401	0.0071	471	471	471	0	0	1	-360	360;
	370	90	0.010351	0.032395	0.0562	0	0	0	0	0	1	-360	360;
	1471	90	0.009146	0.025778	0.041	0	0	0	0	0	1	-360	360;
	917	92	0.000395	0.006648	0.2426	2487	2487	2487	0	0	1	-360	360;
	933	92	0.000492	0.008345	0.3032	2487	2487	2487	0	0	1	-360	360;
	1043	91	0.001198	0.015699	0.5401	2487	2487	2487	0	0	1	-360	360;
...
];

%% bus names
mpc.bus_name = {
	'            ';
	'            ';
	'            ';
	'            ';
	'            ';
	'            ';
	'            ';
	'            ';
	'            ';
	'            ';
	'            ';
	'            ';
	'            ';
	'            ';
	'            ';
	'            ';
	'            ';
	'            ';
	'            ';
	'            ';
	'            ';
	'            ';
	'            ';
	'            ';
	'            ';
	'            ';
	'            ';
	'            ';
	'            ';
	'            ';
	'            ';
	'            ';
	'            ';
	'            ';
	'            ';
	'            ';
	'            ';
	'            ';
	'            ';
	'            ';
	'            ';
	'            ';
	'            ';
	'            ';
	'            ';
	'            ';
	'            ';
	'            ';
	'            ';
	'            ';
	'            ';
	'            ';
	'            ';
	'            ';
	'            ';
	'            ';
	'            ';
	'            ';
	'            ';
	'            ';
	'            ';
	'            ';
	'            ';
	'            ';
	'            ';
	'            ';
	'            ';
	'            ';
	'            ';
	'            ';
	'            ';
	'            ';
	'            ';
	'            ';
	'            ';
	'            ';
	'            ';
	'            ';
	'            ';
	'            ';
	'            ';
	'            ';
	'            ';
	'            ';
	'            ';
	'            ';
	'            ';
	'            ';
	'            ';
	'            ';
	'            ';
	'            ';
	'            ';
	'            ';
	'            ';
	'            ';
	'            ';
	'            ';
	'            ';
	'            ';
	'            ';
	'            ';
	'            ';
	'            ';
	'            ';
	'            ';
	'            ';
	'            ';
	'            ';
	'            ';
	'            ';
	'            ';
	'            ';
	'            ';
	'            ';
	'            ';
	'            ';
	'            ';
	'            ';
	'            ';
	'            ';
	'            ';
	'            ';
	'            ';
	'            ';
	'            ';
	'            ';
	'            ';
	'            ';
	'            ';
	'            ';
	'            ';
	'            ';
	'            ';
	'            ';
	'            ';
	'            ';
	'            ';
	'            ';
	'            ';
	'            ';
	'            ';
	'            ';
	'            ';
	'            ';
	'            ';
	'            ';
	'            ';
	'            ';
	'            ';
	'            ';
	'            ';
	'            ';
	'            ';
	'            ';
	'            ';
	'            ';
	'            ';
	'            ';
	'            ';
	'            ';
	'            ';
	'            ';
	'            ';
	'            ';
	'            ';
	'            ';
	'            ';
	'            ';
	'            ';
	'            ';
	'            ';
	'            ';
	'            ';
	'            ';
	'            ';
	'            ';
	'            ';
	'            ';
	'            ';
	'            ';
	'            ';
	'            ';
	'            ';
	'            ';
	'            ';
	'            ';
	'            ';
	'            ';
	'            ';
	'            ';
	'            ';
	'            ';
	'            ';
	'            ';
	'            ';
	'            ';
	'            ';
	'            ';
	'            ';
...
};
